/*--------------------------------*- C++ -*----------------------------------*\
  =========                 |
  \\      /  F ield         | OpenFOAM: The Open Source CFD Toolbox
   \\    /   O peration     | Website:  https://openfoam.org
    \\  /    A nd           | Version:  dev
     \\/     M anipulation  |
\*---------------------------------------------------------------------------*/
FoamFile
{
    version     2.0;
    format      ascii;
    class       polyBoundaryMesh;
    location    "0.001/region1/polyMesh";
    object      boundary;
}
// * * * * * * * * * * * * * * * * * * * * * * * * * * * * * * * * * * * * * //

4
(
    Lower
    {
        type            wall;
        inGroups        1(wall);
        nFaces          40;
        startFace       1518;
    }
    Upper
    {
        type            wall;
        inGroups        1(wall);
        nFaces          40;
        startFace       1558;
    }
    defaultFaces
    {
        type            empty;
        inGroups        1(empty);
        nFaces          1584;
        startFace       1598;
    }
    region1_to_heatSource
    {
        type            mappedWall;
        inGroups        1(wall);
        nFaces          12;
        startFace       3182;
        sampleMode      nearestPatchFace;
        sampleRegion    heatSource;
        samplePatch     heatSource_to_region1;
    }
)

// ************************************************************************* //
