/*--------------------------------*- C++ -*----------------------------------*\
  =========                 |
  \\      /  F ield         | OpenFOAM: The Open Source CFD Toolbox
   \\    /   O peration     | Website:  https://openfoam.org
    \\  /    A nd           | Version:  dev
     \\/     M anipulation  |
\*---------------------------------------------------------------------------*/
FoamFile
{
    version     2.0;
    format      ascii;
    class       polyBoundaryMesh;
    location    "0.001/heatSource/polyMesh";
    object      boundary;
}
// * * * * * * * * * * * * * * * * * * * * * * * * * * * * * * * * * * * * * //

2
(
    defaultFaces
    {
        type            empty;
        inGroups        1(empty);
        nFaces          16;
        startFace       10;
    }
    heatSource_to_region1
    {
        type            mappedWall;
        inGroups        1(wall);
        nFaces          12;
        startFace       26;
        sampleMode      nearestPatchFace;
        sampleRegion    region1;
        samplePatch     region1_to_heatSource;
    }
)

// ************************************************************************* //
