/*--------------------------------*- C++ -*----------------------------------*\
| =========                 |                                                 |
| \\      /  F ield         | OpenFOAM: The Open Source CFD Toolbox           |
|  \\    /   O peration     | Version:  v1806                                 |
|   \\  /    A nd           | Web:      www.OpenFOAM.com                      |
|    \\/     M anipulation  |                                                 |
\*---------------------------------------------------------------------------*/
FoamFile
{
    version     2.0;
    format      ascii;
    class       dictionary;
    location    "system";
    object      fvOptions;
}
// * * * * * * * * * * * * * * * * * * * * * * * * * * * * * * * * * * * * * //


energySource
{
    type            scalarSemiImplicitSource;
    active          true;
    selectionMode   all;

    scalarSemiImplicitSourceCoeffs
    {
        volumeMode      absolute;//specific;//
        injectionRateSuSp
        {
            h           (700 0); //   q in [W]; or in [W/m³] if you use specific mode
        }
    }
}
// ************************************************************************* //
